FoamFile
{
    version  2.0;
    format   ascii;
    class    dictionary;
    object   blockMeshDict;
}

convertToMeters 1.0;

vertices
(
(4.000000e+02 6.000000e+01 0.000000e+00) 
(-4.000000e+02 6.000000e+01 0.000000e+00) 
(-4.000000e+02 -6.000000e+01 0.000000e+00) 
(4.000000e+02 -6.000000e+01 0.000000e+00) 
(2.000000e+03 6.000000e+01 0.000000e+00) 
(2.000000e+03 1.000000e+03 0.000000e+00) 
(4.000000e+02 1.000000e+03 0.000000e+00) 
(-4.000000e+02 1.000000e+03 0.000000e+00) 
(-2.000000e+03 1.000000e+03 0.000000e+00) 
(-2.000000e+03 6.000000e+01 0.000000e+00) 
(-2.000000e+03 -6.000000e+01 0.000000e+00) 
(-2.000000e+03 -1.000000e+03 0.000000e+00) 
(-4.000000e+02 -1.000000e+03 0.000000e+00) 
(4.000000e+02 -1.000000e+03 0.000000e+00) 
(2.000000e+03 -1.000000e+03 0.000000e+00) 
(2.000000e+03 -6.000000e+01 0.000000e+00) 
(4.000000e+02 6.000000e+01 1.000000e-01) 
(-4.000000e+02 6.000000e+01 1.000000e-01) 
(-4.000000e+02 -6.000000e+01 1.000000e-01) 
(4.000000e+02 -6.000000e+01 1.000000e-01) 
(2.000000e+03 6.000000e+01 1.000000e-01) 
(2.000000e+03 1.000000e+03 1.000000e-01) 
(4.000000e+02 1.000000e+03 1.000000e-01) 
(-4.000000e+02 1.000000e+03 1.000000e-01) 
(-2.000000e+03 1.000000e+03 1.000000e-01) 
(-2.000000e+03 6.000000e+01 1.000000e-01) 
(-2.000000e+03 -6.000000e+01 1.000000e-01) 
(-2.000000e+03 -1.000000e+03 1.000000e-01) 
(-4.000000e+02 -1.000000e+03 1.000000e-01) 
(4.000000e+02 -1.000000e+03 1.000000e-01) 
(2.000000e+03 -1.000000e+03 1.000000e-01) 
(2.000000e+03 -6.000000e+01 1.000000e-01) 


);

blocks
(
hex (9 1 7 8 25 17 23 24) (50 50 1) simpleGrading ( 2.000000e+00 1.000000e+00 1.0 ) 
hex (1 0 6 7 17 16 22 23) (50 50 1) simpleGrading ( 2.000000e+00 1.000000e+00 1.0 ) 
hex (0 4 5 6 16 20 21 22) (50 50 1) simpleGrading ( 2.000000e+00 1.000000e+00 1.0 ) 
hex (10 2 1 9 26 18 17 25) (50 50 1) simpleGrading ( 2.000000e+00 1.000000e+00 1.0 ) 
hex (3 15 4 0 19 31 20 16) (50 50 1) simpleGrading ( 2.000000e+00 1.000000e+00 1.0 ) 
hex (11 12 2 10 27 28 18 26) (50 50 1) simpleGrading ( 2.000000e+00 1.000000e+00 1.0 ) 
hex (12 13 3 2 28 29 19 18) (50 50 1) simpleGrading ( 2.000000e+00 1.000000e+00 1.0 ) 
hex (13 14 15 3 29 30 31 19) (50 50 1) simpleGrading ( 2.000000e+00 1.000000e+00 1.0 ) 


);


boundary
(

  inlet
  {
      type patch;
      faces
      (
	(8 24 25 9)
	(9 25 26 10)
	(10 26 27 11)
 
      );
  }

  outlet
  {
      type patch;
      faces
      (
	(5 21 20 4)
	(4 20 31 15)
	(15 31 30 14)
	
      );
  }

  box
  {
      type wall;
      faces
      (
	(0 16 17 1)
	(1 17 18 2)
	(2 18 19 3)
	(3 19 16 0)

      );
  }

  top
  {
      type symmetryPlane;
      faces
      (
	(8 24 23 7)
	(7 23 22 6)
	(6 22 21 5)

      );
  }

  bottom
  {
      type symmetryPlane;
      faces
      (
	(11 27 28 12)
	(12 28 29 13)
	(13 29 30 14)

      );
  }

);
