FoamFile
{
    version  2.0;
    format   ascii;
    class    dictionary;
    object   blockMeshDict;
}

convertToMeters 1.0;

vertices
(
(4.000000e+02 6.000000e+01 0.000000e+00) 
(-4.000000e+02 6.000000e+01 0.000000e+00) 
(-3.874145e+02 4.800000e+01 0.000000e+00) 
(-4.000000e+02 3.600000e+01 0.000000e+00) 
(-3.881703e+02 2.400000e+01 0.000000e+00) 
(-4.000000e+02 1.200000e+01 0.000000e+00) 
(-3.899417e+02 0.000000e+00 0.000000e+00) 
(-4.000000e+02 -1.200000e+01 0.000000e+00) 
(-3.890769e+02 -2.400000e+01 0.000000e+00) 
(-4.000000e+02 -3.600000e+01 0.000000e+00) 
(-3.913331e+02 -4.800000e+01 0.000000e+00) 
(-4.000000e+02 -6.000000e+01 0.000000e+00) 
(4.000000e+02 -6.000000e+01 0.000000e+00) 
(2.000000e+03 6.000000e+01 0.000000e+00) 
(2.000000e+03 1.000000e+03 0.000000e+00) 
(4.000000e+02 1.000000e+03 0.000000e+00) 
(-4.000000e+02 1.000000e+03 0.000000e+00) 
(-2.000000e+03 1.000000e+03 0.000000e+00) 
(-2.000000e+03 6.000000e+01 0.000000e+00) 
(-2.000000e+03 4.800000e+01 0.000000e+00) 
(-2.000000e+03 3.600000e+01 0.000000e+00) 
(-2.000000e+03 2.400000e+01 0.000000e+00) 
(-2.000000e+03 1.200000e+01 0.000000e+00) 
(-2.000000e+03 0.000000e+00 0.000000e+00) 
(-2.000000e+03 -1.200000e+01 0.000000e+00) 
(-2.000000e+03 -2.400000e+01 0.000000e+00) 
(-2.000000e+03 -3.600000e+01 0.000000e+00) 
(-2.000000e+03 -4.800000e+01 0.000000e+00) 
(-2.000000e+03 -6.000000e+01 0.000000e+00) 
(-2.000000e+03 -1.000000e+03 0.000000e+00) 
(-4.000000e+02 -1.000000e+03 0.000000e+00) 
(4.000000e+02 -1.000000e+03 0.000000e+00) 
(2.000000e+03 -1.000000e+03 0.000000e+00) 
(2.000000e+03 -6.000000e+01 0.000000e+00) 
(4.000000e+02 6.000000e+01 1.000000e-01) 
(-4.000000e+02 6.000000e+01 1.000000e-01) 
(-3.874145e+02 4.800000e+01 1.000000e-01) 
(-4.000000e+02 3.600000e+01 1.000000e-01) 
(-3.881703e+02 2.400000e+01 1.000000e-01) 
(-4.000000e+02 1.200000e+01 1.000000e-01) 
(-3.899417e+02 0.000000e+00 1.000000e-01) 
(-4.000000e+02 -1.200000e+01 1.000000e-01) 
(-3.890769e+02 -2.400000e+01 1.000000e-01) 
(-4.000000e+02 -3.600000e+01 1.000000e-01) 
(-3.913331e+02 -4.800000e+01 1.000000e-01) 
(-4.000000e+02 -6.000000e+01 1.000000e-01) 
(4.000000e+02 -6.000000e+01 1.000000e-01) 
(2.000000e+03 6.000000e+01 1.000000e-01) 
(2.000000e+03 1.000000e+03 1.000000e-01) 
(4.000000e+02 1.000000e+03 1.000000e-01) 
(-4.000000e+02 1.000000e+03 1.000000e-01) 
(-2.000000e+03 1.000000e+03 1.000000e-01) 
(-2.000000e+03 6.000000e+01 1.000000e-01) 
(-2.000000e+03 4.800000e+01 1.000000e-01) 
(-2.000000e+03 3.600000e+01 1.000000e-01) 
(-2.000000e+03 2.400000e+01 1.000000e-01) 
(-2.000000e+03 1.200000e+01 1.000000e-01) 
(-2.000000e+03 0.000000e+00 1.000000e-01) 
(-2.000000e+03 -1.200000e+01 1.000000e-01) 
(-2.000000e+03 -2.400000e+01 1.000000e-01) 
(-2.000000e+03 -3.600000e+01 1.000000e-01) 
(-2.000000e+03 -4.800000e+01 1.000000e-01) 
(-2.000000e+03 -6.000000e+01 1.000000e-01) 
(-2.000000e+03 -1.000000e+03 1.000000e-01) 
(-4.000000e+02 -1.000000e+03 1.000000e-01) 
(4.000000e+02 -1.000000e+03 1.000000e-01) 
(2.000000e+03 -1.000000e+03 1.000000e-01) 
(2.000000e+03 -6.000000e+01 1.000000e-01) 


);

blocks
(
hex (18 1 16 17 52 35 50 51) (100 100 1) simpleGrading ( 2 1 1 ) 
hex (1 0 15 16 35 34 49 50) (100 100 1) simpleGrading ( 2 1 1 ) 
hex (0 13 14 15 34 47 48 49) (100 100 1) simpleGrading ( 2 1 1 ) 
hex (19 2 1 18 53 36 35 52) (100 100 1) simpleGrading ( 2 1 1 ) 
hex (20 3 2 19 54 37 36 53) (100 100 1) simpleGrading ( 2 1 1 ) 
hex (21 4 3 20 55 38 37 54) (100 100 1) simpleGrading ( 2 1 1 ) 
hex (22 5 4 21 56 39 38 55) (100 100 1) simpleGrading ( 2 1 1 ) 
hex (23 6 5 22 57 40 39 56) (100 100 1) simpleGrading ( 2 1 1 ) 
hex (24 7 6 23 58 41 40 57) (100 100 1) simpleGrading ( 2 1 1 ) 
hex (25 8 7 24 59 42 41 58) (100 100 1) simpleGrading ( 2 1 1 ) 
hex (26 9 8 25 60 43 42 59) (100 100 1) simpleGrading ( 2 1 1 ) 
hex (27 10 9 26 61 44 43 60) (100 100 1) simpleGrading ( 2 1 1 ) 
hex (28 11 10 27 62 45 44 61) (100 100 1) simpleGrading ( 2 1 1 ) 
hex (12 33 13 0 46 67 47 34) (100 100 1) simpleGrading ( 2 1 1 ) 
hex (29 30 11 28 63 64 45 62) (100 100 1) simpleGrading ( 2 1 1 ) 
hex (30 31 12 11 64 65 46 45) (100 100 1) simpleGrading ( 2 1 1 ) 
hex (31 32 33 12 65 66 67 46) (100 100 1) simpleGrading ( 2 1 1 ) 


);


boundary
(

  inlet
  {
      type patch;
      faces
      (
		(17 51 52 18)
		(18 52 53 19)
		(19 53 54 20)
		(20 54 55 21)
		(21 55 56 22)
		(22 56 57 23)
		(23 57 58 24)
		(24 58 59 25)
		(25 59 60 26)
		(26 60 61 27)
		(27 61 62 28)
		(28 62 63 29)

      );
  }

  outlet
  {
      type patch;
      faces
      (
		(14 48 47 13)
		(13 47 67 33)
		(33 67 66 32)
	
      );
  }

  box
  {
      type wall;
      faces
      (
		(0 34 35 1)
		(1 35 36 2)
		(2 36 37 3)
		(3 37 38 4)
		(4 38 39 5)
		(5 39 40 6)
		(6 40 41 7)
		(7 41 42 8)
		(8 42 43 9)
		(9 43 44 10)
		(10 44 45 11)
		(11 45 46 12)
		(12 46 34 0)

      );
  }

  top
  {
      type symmetryPlane;
      faces
      (
		(17 51 50 16)
		(16 50 49 15)
		(15 49 48 14)

      );
  }

  bottom
  {
      type symmetryPlane;
      faces
      (
		(29 63 64 30)
		(30 64 65 31)
		(31 65 66 32)

      );
  }

);
