FoamFile
{
	version 2.0;
	format ascii;
	class dictionary;
	object blockMeshDict;
}

convertToMeters 1.0;

vertices
(
	(5.000000e-01 0.000000e+00 0.000000e+00) 
	(3.535534e-01 3.535534e-01 0.000000e+00) 
	(3.061617e-17 5.000000e-01 0.000000e+00) 
	(-3.535534e-01 3.535534e-01 0.000000e+00) 
	(-5.000000e-01 6.123234e-17 0.000000e+00) 
	(-3.535534e-01 -3.535534e-01 0.000000e+00) 
	(-9.184851e-17 -5.000000e-01 0.000000e+00) 
	(3.535534e-01 -3.535534e-01 0.000000e+00) 
	(1.000000e+00 0.000000e+00 0.000000e+00) 
	(7.071068e-01 7.071068e-01 0.000000e+00) 
	(6.123234e-17 1.000000e+00 0.000000e+00) 
	(-7.071068e-01 7.071068e-01 0.000000e+00) 
	(-1.000000e+00 1.224647e-16 0.000000e+00) 
	(-7.071068e-01 -7.071068e-01 0.000000e+00) 
	(-1.836970e-16 -1.000000e+00 0.000000e+00) 
	(7.071068e-01 -7.071068e-01 0.000000e+00) 
	(1.200000e+01 0.000000e+00 0.000000e+00) 
	(1.200000e+01 7.071068e-01 0.000000e+00) 
	(1.200000e+01 4.000000e+00 0.000000e+00) 
	(7.071068e-01 4.000000e+00 0.000000e+00) 
	(0.000000e+00 4.000000e+00 0.000000e+00) 
	(-7.071068e-01 4.000000e+00 0.000000e+00) 
	(-4.000000e+00 4.000000e+00 0.000000e+00) 
	(-4.000000e+00 7.071068e-01 0.000000e+00) 
	(-4.000000e+00 0.000000e+00 0.000000e+00) 
	(-4.000000e+00 -7.071068e-01 0.000000e+00) 
	(-4.000000e+00 -4.000000e+00 0.000000e+00) 
	(-7.071068e-01 -4.000000e+00 0.000000e+00) 
	(0.000000e+00 -4.000000e+00 0.000000e+00) 
	(7.071068e-01 -4.000000e+00 0.000000e+00) 
	(1.200000e+01 -4.000000e+00 0.000000e+00) 
	(1.200000e+01 -7.071068e-01 0.000000e+00) 
	(5.000000e-01 0.000000e+00 1.000000e-01) 
	(3.535534e-01 3.535534e-01 1.000000e-01) 
	(3.061617e-17 5.000000e-01 1.000000e-01) 
	(-3.535534e-01 3.535534e-01 1.000000e-01) 
	(-5.000000e-01 6.123234e-17 1.000000e-01) 
	(-3.535534e-01 -3.535534e-01 1.000000e-01) 
	(-9.184851e-17 -5.000000e-01 1.000000e-01) 
	(3.535534e-01 -3.535534e-01 1.000000e-01) 
	(1.000000e+00 0.000000e+00 1.000000e-01) 
	(7.071068e-01 7.071068e-01 1.000000e-01) 
	(6.123234e-17 1.000000e+00 1.000000e-01) 
	(-7.071068e-01 7.071068e-01 1.000000e-01) 
	(-1.000000e+00 1.224647e-16 1.000000e-01) 
	(-7.071068e-01 -7.071068e-01 1.000000e-01) 
	(-1.836970e-16 -1.000000e+00 1.000000e-01) 
	(7.071068e-01 -7.071068e-01 1.000000e-01) 
	(1.200000e+01 0.000000e+00 1.000000e-01) 
	(1.200000e+01 7.071068e-01 1.000000e-01) 
	(1.200000e+01 4.000000e+00 1.000000e-01) 
	(7.071068e-01 4.000000e+00 1.000000e-01) 
	(0.000000e+00 4.000000e+00 1.000000e-01) 
	(-7.071068e-01 4.000000e+00 1.000000e-01) 
	(-4.000000e+00 4.000000e+00 1.000000e-01) 
	(-4.000000e+00 7.071068e-01 1.000000e-01) 
	(-4.000000e+00 0.000000e+00 1.000000e-01) 
	(-4.000000e+00 -7.071068e-01 1.000000e-01) 
	(-4.000000e+00 -4.000000e+00 1.000000e-01) 
	(-7.071068e-01 -4.000000e+00 1.000000e-01) 
	(0.000000e+00 -4.000000e+00 1.000000e-01) 
	(7.071068e-01 -4.000000e+00 1.000000e-01) 
	(1.200000e+01 -4.000000e+00 1.000000e-01) 
	(1.200000e+01 -7.071068e-01 1.000000e-01) 






);
blocks
(
	hex (0 8 9 1 32 40 41 33) (25 50 1) simpleGrading (2 1 1)
	hex (1 9 10 2 33 41 42 34) (25 25 1) simpleGrading (2 1 1)
	hex (2 10 11 3 34 42 43 35) (25 25 1) simpleGrading (2 1 1)
	hex (3 11 12 4 35 43 44 36) (25 25 1) simpleGrading (2 1 1)
	hex (4 12 13 5 36 44 45 37) (25 25 1) simpleGrading (2 1 1)
	hex (5 13 14 6 37 45 46 38) (25 25 1) simpleGrading (2 1 1)
	hex (6 14 15 7 38 46 47 39) (25 25 1) simpleGrading (2 1 1)
	hex (7 15 8 0 39 47 40 32) (25 50 1) simpleGrading (2 1 1)
	hex (8 16 17 9 40 48 49 41) (100 50 1) simpleGrading (1 1 1)
	hex (9 17 18 19 41 49 50 51) (100 25 1) simpleGrading (1 1 1)
	hex (10 9 19 20 42 41 51 52) (25 25 1) simpleGrading (1 1 1)
	hex (11 10 20 21 43 42 52 53) (25 25 1) simpleGrading (1 1 1)
	hex (23 11 21 22 55 43 53 54) (20 25 1) simpleGrading (1 1 1)
	hex (24 12 11 23 56 44 43 55) (20 25 1) simpleGrading (1 1 1)
	hex (25 13 12 24 57 45 44 56) (20 25 1) simpleGrading (1 1 1)
	hex (26 27 13 25 58 59 45 57) (20 25 1) simpleGrading (1 1 1)
	hex (27 28 14 13 59 60 46 45) (25 25 1) simpleGrading (1 1 1)
	hex (28 29 15 14 60 61 47 46) (25 25 1) simpleGrading (1 1 1)
	hex (29 30 31 15 61 62 63 47) (100 25 1) simpleGrading (1 1 1)
	hex (15 31 16 8 47 63 48 40) (100 50 1) simpleGrading (1 1 1)
);
edges
(
arc 0 1 (4.619398e-01 1.913417e-01 0.000000e+00) 
arc 8 9 (9.238795e-01 3.826834e-01 0.000000e+00) 
arc 32 33 (4.619398e-01 1.913417e-01 1.000000e-01) 
arc 40 41 (9.238795e-01 3.826834e-01 1.000000e-01) 
arc 1 2 (1.913417e-01 4.619398e-01 0.000000e+00) 
arc 9 10 (3.826834e-01 9.238795e-01 0.000000e+00) 
arc 33 34 (1.913417e-01 4.619398e-01 1.000000e-01) 
arc 41 42 (3.826834e-01 9.238795e-01 1.000000e-01) 
arc 2 3 (-1.913417e-01 4.619398e-01 0.000000e+00) 
arc 10 11 (-3.826834e-01 9.238795e-01 0.000000e+00) 
arc 34 35 (-1.913417e-01 4.619398e-01 1.000000e-01) 
arc 42 43 (-3.826834e-01 9.238795e-01 1.000000e-01) 
arc 3 4 (-4.619398e-01 1.913417e-01 0.000000e+00) 
arc 11 12 (-9.238795e-01 3.826834e-01 0.000000e+00) 
arc 35 36 (-4.619398e-01 1.913417e-01 1.000000e-01) 
arc 43 44 (-9.238795e-01 3.826834e-01 1.000000e-01) 
arc 4 5 (-4.619398e-01 -1.913417e-01 0.000000e+00) 
arc 12 13 (-9.238795e-01 -3.826834e-01 0.000000e+00) 
arc 36 37 (-4.619398e-01 -1.913417e-01 1.000000e-01) 
arc 44 45 (-9.238795e-01 -3.826834e-01 1.000000e-01) 
arc 5 6 (-1.913417e-01 -4.619398e-01 0.000000e+00) 
arc 13 14 (-3.826834e-01 -9.238795e-01 0.000000e+00) 
arc 37 38 (-1.913417e-01 -4.619398e-01 1.000000e-01) 
arc 45 46 (-3.826834e-01 -9.238795e-01 1.000000e-01) 
arc 6 7 (1.913417e-01 -4.619398e-01 0.000000e+00) 
arc 14 15 (3.826834e-01 -9.238795e-01 0.000000e+00) 
arc 38 39 (1.913417e-01 -4.619398e-01 1.000000e-01) 
arc 46 47 (3.826834e-01 -9.238795e-01 1.000000e-01) 
arc 7 0 (4.619398e-01 -1.913417e-01 0.000000e+00) 
arc 15 8 (9.238795e-01 -3.826834e-01 0.000000e+00) 
arc 39 32 (4.619398e-01 -1.913417e-01 1.000000e-01) 
arc 47 40 (9.238795e-01 -3.826834e-01 1.000000e-01) 

 
	

	
);

boundary
(

	inlet
	{
		type patch;
		faces
		(
			(22 54 55 23)
			(23 55 56 24)
			(24 56 57 25)
			(25 57 58 26)
		);
	}
	outlet
	{
		type patch;
		faces
		(
			(18 50 49 17)
			(17 49 48 16)
			(16 48 63 31)
			(31 63 62 30)
		);
	}
	
	cylinder
	{
		type wall;
		faces
		(
			(4 36 35 3)
			(3 35 34 2)
			(2 34 33 1)
			(1 33 32 0)
			(0 32 39 7)
			(7 39 38 6)
			(6 38 37 5)
			(5 37 36 4)
		);
	}
	
	top
	{
		type symmetryPlane;
		faces
		(
			(22 54 53 21)
			(21 53 52 20)
			(20 52 51 19)
			(19 51 50 18)
		);
	}
	bottom
	{
		type symmetryPlane;
		faces
		(
			(26 58 59 27)
			(27 59 60 28)
			(28 60 61 29)
			(29 61 62 30)
		);
	}
	
	
			
);
